data_functionalizedCrystal
_audit_creation_method	'EQeq! by Chris Wilmer'
_symmetry_space_group_name_H-M	'P1'
_symmetry_Int_Tables_number	1
_symmetry_cell_setting	triclinic
loop_
_symmetry_equiv_pos_as_xyz
x,y,z
_cell_length_a	37.756300
_cell_length_b	37.624500
_cell_length_c	7.320200
_cell_angle_alpha	85.224800
_cell_angle_beta	88.208900
_cell_angle_gamma	119.908400
loop_
_atom_site_label
_atom_site_type_symbol
_atom_site_fract_x
_atom_site_fract_y
_atom_site_fract_z
_atom_site_charge
C1	C	0.483620	0.455770	0.109010	0.117000
C2	C	0.457550	0.472580	0.107780	-0.079000
C3	C	0.473170	0.515330	0.088670	-0.018000
C4	C	0.443310	0.530060	0.094040	0.040000
N5	N	0.455230	0.569100	0.069820	-0.113000
C6	C	0.429230	0.586750	0.073530	0.087000
C7	C	0.389520	0.565760	0.163670	-0.075000
C8	C	0.365800	0.584780	0.166390	-0.017000
C9	C	0.380910	0.624900	0.076760	-0.016000
C10	C	0.420760	0.645510	-0.013250	-0.017000
C11	C	0.444740	0.626850	-0.011670	-0.070000
C12	C	0.355630	0.645360	0.078160	0.039000
C13	C	0.312570	0.622070	0.086770	-0.077000
O14	O	0.468580	0.412810	0.131420	-0.183000
H15	H	0.377180	0.535350	0.237580	0.047000
H16	H	0.336110	0.568290	0.243550	0.030000
H17	H	0.433390	0.675740	-0.089370	0.031000
H18	H	0.475290	0.643360	-0.081420	0.057000
H19	H	0.297730	0.588900	0.095760	0.046000
H20	H	0.410940	0.507370	0.113010	0.017000
C21	C	0.425440	0.385090	0.137810	-0.031000
H22	H	0.419610	0.353020	0.150200	0.043000
H23	H	0.413070	0.390410	0.009140	0.045000
H24	H	0.409570	0.388280	0.260090	0.038000
C25	C	0.538850	0.024730	0.111600	-0.057000
C26	C	0.523650	0.982840	0.102030	-0.003000
C27	C	0.481400	0.955410	0.103100	-0.049000
C28	C	0.467520	0.911300	0.091320	0.053000
N29	N	0.429410	0.884920	0.072470	-0.115000
C30	C	0.411920	0.841360	0.066820	0.088000
C31	C	0.430810	0.819640	0.136620	-0.075000
C32	C	0.411290	0.776830	0.138550	-0.016000
C33	C	0.372720	0.754590	0.067860	-0.016000
C34	C	0.354390	0.776920	-0.003900	-0.017000
C35	C	0.373450	0.819570	-0.000700	-0.070000
C36	C	0.351750	0.708610	0.070730	0.039000
C37	C	0.374660	0.688500	0.070460	-0.077000
H38	H	0.459690	0.835130	0.197570	0.049000
H39	H	0.426070	0.761320	0.202780	0.030000
H40	H	0.325690	0.761950	-0.066650	0.031000
H41	H	0.358510	0.835920	-0.054580	0.057000
H42	H	0.407630	0.706500	0.064930	0.046000
H43	H	0.490110	0.901620	0.094600	0.015000
C44	C	0.970570	0.510730	0.127790	-0.068000
C45	C	0.012490	0.539060	0.125510	0.112000
C46	C	0.040770	0.524770	0.127580	-0.020000
C47	C	0.084880	0.553360	0.142330	0.040000
N48	N	0.112130	0.543600	0.094920	-0.120000
C49	C	0.155910	0.568680	0.097560	0.087000
C50	C	0.175180	0.607900	0.160250	-0.073000
C51	C	0.217860	0.630930	0.157810	-0.017000
C52	C	0.242710	0.616080	0.088460	-0.016000
C53	C	0.223030	0.576900	0.024360	-0.017000
C54	C	0.180280	0.553460	0.031390	-0.071000
C55	C	0.288610	0.641190	0.083440	0.038000
C56	C	0.308780	0.684510	0.075390	-0.076000
H57	H	0.157930	0.620930	0.215570	0.048000
H58	H	0.230920	0.659850	0.216440	0.031000
H59	H	0.240340	0.564450	-0.036580	0.031000
H60	H	0.166030	0.523560	-0.019570	0.056000
H61	H	0.290920	0.699610	0.073430	0.046000
H62	H	0.093840	0.582670	0.191140	0.027000
O63	O	0.024320	0.580480	0.139670	-0.199000
C64	C	0.051820	0.610060	-0.006760	-0.024000
H65	H	0.061350	0.596120	-0.111600	0.033000
H66	H	0.079630	0.633660	0.050980	0.034000
H67	H	0.036760	0.625800	-0.075220	0.034000
C68	C	0.516000	0.542500	0.063470	0.118000
C69	C	0.542070	0.525680	0.062620	-0.079000
C70	C	0.526480	0.482940	0.088100	-0.017000
C71	C	0.556300	0.468110	0.090360	0.041000
N72	N	0.544450	0.429290	0.088290	-0.112000
C73	C	0.570240	0.411320	0.090820	0.087000
C74	C	0.609760	0.431060	0.152470	-0.074000
C75	C	0.633050	0.411530	0.157790	-0.017000
C76	C	0.617870	0.372100	0.097990	-0.016000
C77	C	0.578270	0.352950	0.034790	-0.017000
C78	C	0.554630	0.371990	0.035140	-0.070000
C79	C	0.642860	0.351060	0.102110	0.038000
C80	C	0.685940	0.373990	0.098240	-0.076000
H81	H	0.622200	0.460740	0.204030	0.048000
H82	H	0.662300	0.427080	0.215510	0.031000
H83	H	0.565450	0.323660	-0.020370	0.031000
H84	H	0.524270	0.356440	-0.013240	0.057000
H85	H	0.701300	0.407120	0.091890	0.046000
H86	H	0.588610	0.490690	0.086370	0.017000
C87	C	0.453770	0.970470	0.116280	0.142000
C88	C	0.469770	0.013150	0.125100	-0.110000
C89	C	0.512100	0.040290	0.122410	0.049000
C90	C	0.527780	0.084710	0.130280	0.010000
N91	N	0.566960	0.110870	0.113560	-0.115000
C92	C	0.585890	0.154690	0.117100	0.087000
C93	C	0.565600	0.173080	0.196820	-0.072000
C94	C	0.585350	0.215900	0.196620	-0.017000
C95	C	0.625600	0.241550	0.113840	-0.016000
C96	C	0.645650	0.222650	0.035140	-0.017000
C97	C	0.626210	0.179770	0.039800	-0.070000
C98	C	0.646560	0.287530	0.110670	0.038000
C99	C	0.623740	0.307790	0.109790	-0.076000
O100	O	0.411270	0.942020	0.123340	-0.189000
H101	H	0.535070	0.154580	0.265080	0.048000
H102	H	0.569220	0.228500	0.266780	0.031000
H103	H	0.676020	0.240800	-0.035020	0.030000
H104	H	0.642210	0.166030	-0.022450	0.053000
H105	H	0.590830	0.289570	0.114820	0.046000
H106	H	0.505920	0.095200	0.142770	0.027000
C107	C	0.383450	0.957110	0.105130	-0.027000
H108	H	0.351950	0.930370	0.106190	0.040000
H109	H	0.390700	0.976870	-0.027680	0.045000
H110	H	0.384020	0.974130	0.222700	0.033000
C111	C	0.026120	0.482330	0.127620	-0.067000
C112	C	0.984150	0.453930	0.131320	0.111000
C113	C	0.955820	0.468180	0.132900	-0.020000
C114	C	0.911140	0.439030	0.152410	0.038000
N115	N	0.885870	0.450730	0.095640	-0.120000
C116	C	0.841920	0.425780	0.102410	0.086000
C117	C	0.819800	0.385050	0.189700	-0.074000
C118	C	0.777110	0.362380	0.191720	-0.017000
C119	C	0.755310	0.379370	0.104170	-0.016000
C120	C	0.777750	0.420200	0.017420	-0.017000
C121	C	0.820380	0.443110	0.018730	-0.070000
C122	C	0.709620	0.354610	0.103360	0.039000
C123	C	0.689460	0.311400	0.108350	-0.077000
H124	H	0.834760	0.370550	0.260550	0.047000
H125	H	0.761280	0.331810	0.266600	0.030000
H126	H	0.762750	0.434350	-0.056590	0.031000
H127	H	0.836920	0.474320	-0.049970	0.057000
H128	H	0.707320	0.296230	0.111020	0.046000
H129	H	0.900160	0.407770	0.211620	0.026000
O130	O	0.971840	0.411760	0.153570	-0.201000
C131	C	0.947750	0.387570	0.016630	-0.024000
H132	H	0.964480	0.374440	-0.052110	0.036000
H133	H	0.940790	0.405500	-0.089430	0.035000
H134	H	0.918420	0.361600	0.083980	0.034000
C135	C	0.486640	0.459650	0.626170	-0.067000
C136	C	0.458200	0.473150	0.626930	0.112000
C137	C	0.472240	0.515970	0.608640	-0.019000
C138	C	0.443270	0.531390	0.626730	0.039000
N139	N	0.454080	0.569110	0.564780	-0.120000
C140	C	0.429150	0.588100	0.571580	0.087000
C141	C	0.389580	0.568310	0.663150	-0.073000
C142	C	0.366870	0.588360	0.665120	-0.016000
C143	C	0.382630	0.628380	0.573230	-0.016000
C144	C	0.422200	0.647860	0.481300	-0.016000
C145	C	0.445210	0.628080	0.482690	-0.070000
C146	C	0.357970	0.649540	0.573860	0.039000
C147	C	0.314950	0.626490	0.584040	-0.076000
H148	H	0.376040	0.537880	0.737500	0.048000
H149	H	0.337350	0.572640	0.743770	0.031000
H150	H	0.435230	0.678020	0.403940	0.031000
H151	H	0.475520	0.643700	0.410630	0.056000
H152	H	0.300060	0.593350	0.593000	0.047000
H153	H	0.412900	0.510480	0.691070	0.027000
O154	O	0.416580	0.443060	0.665070	-0.200000
C155	C	0.389740	0.441660	0.528790	-0.024000
H156	H	0.376000	0.411320	0.474400	0.036000
H157	H	0.405420	0.466340	0.412150	0.035000
H158	H	0.364560	0.444710	0.593450	0.035000
C159	C	0.546030	0.029490	0.581850	0.107000
C160	C	0.530800	0.987170	0.570720	0.046000
C161	C	0.488210	0.959030	0.596190	0.012000
C162	C	0.471740	0.914820	0.575300	0.028000
N163	N	0.432530	0.889180	0.582170	-0.118000
C164	C	0.414510	0.845650	0.572010	0.087000
C165	C	0.433360	0.823650	0.639020	-0.073000
C166	C	0.413910	0.780910	0.638100	-0.016000
C167	C	0.375360	0.758960	0.567090	-0.015000
C168	C	0.356980	0.781530	0.498220	-0.016000
C169	C	0.376010	0.824160	0.504440	-0.070000
C170	C	0.354360	0.712970	0.568000	0.039000
C171	C	0.377230	0.692730	0.565240	-0.076000
O172	O	0.588020	0.057440	0.540520	-0.174000
H173	H	0.462190	0.839070	0.700730	0.048000
H174	H	0.428680	0.765200	0.700390	0.031000
H175	H	0.328230	0.766730	0.435810	0.032000
H176	H	0.361040	0.840670	0.452840	0.058000
H177	H	0.410260	0.710600	0.557430	0.046000
H178	H	0.492820	0.903990	0.548440	0.031000
C179	C	0.613780	0.056130	0.676750	-0.026000
H180	H	0.635940	0.048540	0.613820	0.043000
H181	H	0.596460	0.033180	0.798340	0.039000
H182	H	0.631190	0.087010	0.725250	0.045000
O183	O	0.558350	0.974400	0.517150	-0.176000
C184	C	0.567410	0.952760	0.661130	-0.032000
H185	H	0.560210	0.922220	0.620900	0.036000
H186	H	0.549970	0.947970	0.794950	0.035000
H187	H	0.600660	0.970430	0.679590	0.038000
C188	C	0.973850	0.517920	0.612730	0.119000
C189	C	0.016650	0.544040	0.610760	-0.077000
C190	C	0.043510	0.528450	0.608630	-0.016000
C191	C	0.088050	0.558270	0.609050	0.041000
N192	N	0.114900	0.546380	0.601510	-0.112000
C193	C	0.158550	0.572160	0.599420	0.088000
C194	C	0.177310	0.611370	0.661660	-0.073000
C195	C	0.220040	0.634900	0.658380	-0.016000
C196	C	0.245160	0.620330	0.588840	-0.015000
C197	C	0.225730	0.580920	0.526670	-0.016000
C198	C	0.183090	0.557010	0.535540	-0.070000
C199	C	0.291060	0.645630	0.582280	0.039000
C200	C	0.311310	0.688950	0.574410	-0.076000
O201	O	0.946050	0.532730	0.618120	-0.182000
H202	H	0.159260	0.623410	0.719120	0.048000
H203	H	0.232940	0.663930	0.715990	0.031000
H204	H	0.243080	0.568590	0.465080	0.031000
H205	H	0.169030	0.526910	0.486540	0.058000
H206	H	0.293460	0.704050	0.574130	0.046000
H207	H	0.097950	0.590670	0.608900	0.017000
C208	C	0.961540	0.575860	0.619850	-0.031000
H209	H	0.982030	0.593470	0.493560	0.044000
H210	H	0.977660	0.586510	0.745610	0.040000
H211	H	0.935350	0.581470	0.621980	0.043000
C212	C	0.514650	0.544100	0.585430	-0.067000
C213	C	0.543090	0.530590	0.584570	0.112000
C214	C	0.529030	0.487770	0.607460	-0.019000
C215	C	0.557990	0.472270	0.624780	0.039000
N216	N	0.547440	0.435140	0.589300	-0.120000
C217	C	0.572420	0.416160	0.597240	0.087000
C218	C	0.611900	0.435230	0.659940	-0.074000
C219	C	0.634680	0.415230	0.664520	-0.016000
C220	C	0.619330	0.376090	0.601960	-0.016000
C221	C	0.579680	0.357330	0.539250	-0.016000
C222	C	0.556490	0.376920	0.539740	-0.070000
C223	C	0.644480	0.355240	0.602130	0.039000
C224	C	0.687580	0.378480	0.596610	-0.076000
H225	H	0.625260	0.464990	0.710640	0.048000
H226	H	0.663860	0.430340	0.723170	0.031000
H227	H	0.566590	0.328060	0.483860	0.032000
H228	H	0.526240	0.361850	0.490040	0.058000
H229	H	0.702740	0.411600	0.590880	0.046000
H230	H	0.588150	0.492700	0.665070	0.026000
O231	O	0.584830	0.560660	0.579180	-0.200000
C232	C	0.611030	0.561280	0.432110	-0.024000
H233	H	0.594530	0.537050	0.340540	0.035000
H234	H	0.635590	0.556960	0.490200	0.035000
H235	H	0.625690	0.591860	0.348770	0.036000
C236	C	0.461570	0.973570	0.639550	-0.096000
C237	C	0.476530	0.015590	0.651370	0.143000
C238	C	0.518890	0.044010	0.622350	-0.084000
C239	C	0.533660	0.088500	0.632590	0.070000
N240	N	0.572410	0.115950	0.607380	-0.119000
C241	C	0.590410	0.159630	0.611970	0.089000
C242	C	0.569520	0.177360	0.692680	-0.074000
C243	C	0.588550	0.220150	0.692380	-0.016000
C244	C	0.628630	0.246340	0.609170	-0.016000
C245	C	0.649230	0.228120	0.529130	-0.016000
C246	C	0.630500	0.185330	0.533290	-0.071000
C247	C	0.648940	0.292200	0.606930	0.040000
C248	C	0.625680	0.312030	0.607500	-0.076000
H249	H	0.539120	0.158480	0.761500	0.050000
H250	H	0.572060	0.232340	0.762910	0.031000
H251	H	0.679430	0.246700	0.457780	0.030000
H252	H	0.646920	0.172130	0.469960	0.057000
H253	H	0.592780	0.293600	0.612030	0.047000
H254	H	0.511330	0.097950	0.656110	0.023000
O255	O	0.449330	0.029000	0.700610	-0.208000
C256	C	0.423800	0.028050	0.559570	-0.022000
H257	H	0.403440	0.039170	0.609740	0.035000
H258	H	0.404330	-0.003830	0.524150	0.035000
H259	H	0.442820	0.048850	0.435450	0.033000
C260	C	0.027690	0.485710	0.602730	0.119000
C261	C	0.984930	0.459710	0.602520	-0.079000
C262	C	0.958040	0.475190	0.609460	-0.016000
C263	C	0.913470	0.445390	0.613000	0.043000
N264	N	0.887350	0.457800	0.586470	-0.112000
C265	C	0.843700	0.432020	0.588660	0.088000
C266	C	0.822460	0.391330	0.675850	-0.073000
C267	C	0.779760	0.368070	0.680400	-0.016000
C268	C	0.757250	0.384590	0.595620	-0.016000
C269	C	0.778960	0.425330	0.507670	-0.016000
C270	C	0.821550	0.448860	0.507420	-0.070000
C271	C	0.711580	0.359500	0.598780	0.039000
C272	C	0.691810	0.316390	0.603710	-0.076000
O273	O	0.055380	0.470780	0.595400	-0.182000
H274	H	0.838340	0.377840	0.747030	0.049000
H275	H	0.764500	0.337580	0.756020	0.031000
H276	H	0.763400	0.439010	0.435020	0.031000
H277	H	0.837530	0.480180	0.439890	0.057000
H278	H	0.710000	0.301580	0.604690	0.046000
H279	H	0.903230	0.412750	0.630760	0.018000
C280	C	0.040150	0.428390	0.572930	-0.031000
H281	H	0.066350	0.422850	0.564570	0.044000
H282	H	0.024840	0.420700	0.443150	0.047000
H283	H	0.018920	0.408160	0.693060	0.039000
O284	O	0.531010	0.585470	0.039520	-0.182000
C285	C	0.573960	0.613160	-0.000030	-0.031000
H286	H	0.424650	0.452580	0.121190	0.052000
H287	H	0.571630	0.044900	0.111720	0.060000
H288	H	0.545130	0.971750	0.094680	0.032000
H289	H	0.949300	0.522100	0.133370	0.072000
H290	H	0.574920	0.545670	0.040630	0.052000
H291	H	0.449620	0.025730	0.133330	0.061000
H292	H	0.047230	0.470740	0.132820	0.070000
H293	H	0.475300	0.426770	0.647920	0.072000
H294	H	0.029630	0.576930	0.610380	0.052000
H295	H	0.526020	0.576980	0.574990	0.072000
H296	H	0.428920	0.952290	0.665660	0.076000
H297	H	0.971940	0.426970	0.596280	0.054000
H298	H	0.579640	0.645180	-0.019700	0.043000
H299	H	0.585120	0.607020	-0.129210	0.046000
H300	H	0.591010	0.610840	0.116780	0.039000
loop_
_geom_bond_atom_site_label_1
_geom_bond_atom_site_label_2
_geom_bond_distance
_geom_bond_site_symmetry_2
_ccdc_geom_bond_type
C1     C2      1.411   .     A
C1     C70     1.413   .     A
C1     O14     1.413   .     S
C2     C3      1.402   .     A
C2     H286    1.080   .     S
C3     C68     1.413   .     A
C3     C4      1.484   .     S
C4     N5      1.298   .     D
C4     H20     1.082   .     S
N5     C6      1.434   .     S
C6     C7      1.406   .     A
C6     C11     1.396   .     A
C7     C8      1.398   .     A
C7     H15     1.081   .     S
C8     C9      1.410   .     A
C8     H16     1.081   .     S
C9     C10     1.410   .     A
C9     C12     1.496   .     S
C10    C11     1.395   .     A
C10    H17     1.081   .     S
C11    H18     1.083   .     S
C12    C13     1.407   .     A
C12    C37     1.405   .     A
C13    C55     1.408   .     A
C13    H19     1.078   .     S
O14    C21     1.427   .     S
C21    H22     1.109   .     S
C21    H23     1.111   .     S
C21    H24     1.109   .     S
C25    C26     1.392   1_545 A
C25    C89     1.400   .     A
C25    H287    1.082   .     S
C26    C25     1.392   1_565 A
C26    C27     1.402   .     A
C26    H288    1.083   .     S
C27    C87     1.418   .     A
C27    C28     1.482   .     S
C28    N29     1.298   .     D
C28    H43     1.082   .     S
N29    C30     1.434   .     S
C30    C31     1.404   .     A
C30    C35     1.397   .     A
C31    C32     1.396   .     A
C31    H38     1.081   .     S
C32    C33     1.412   .     A
C32    H39     1.081   .     S
C33    C34     1.410   .     A
C33    C36     1.499   .     S
C34    C35     1.396   .     A
C34    H40     1.081   .     S
C35    H41     1.083   .     S
C36    C37     1.405   .     A
C36    C56     1.407   .     A
C37    H42     1.078   .     S
C44    C45     1.398   1_655 A
C44    C113    1.405   .     A
C44    H289    1.083   .     S
C45    C44     1.398   1_455 A
C45    C46     1.414   .     A
C45    O63     1.405   .     S
C46    C111    1.405   .     A
C46    C47     1.479   .     S
C47    N48     1.300   .     D
C47    H62     1.077   .     S
N48    C49     1.440   .     S
C49    C50     1.407   .     A
C49    C54     1.398   .     A
C50    C51     1.397   .     A
C50    H57     1.079   .     S
C51    C52     1.411   .     A
C51    H58     1.080   .     S
C52    C53     1.411   .     A
C52    C55     1.501   .     S
C53    C54     1.398   .     A
C53    H59     1.081   .     S
C54    H60     1.083   .     S
C55    C56     1.409   .     A
C56    H61     1.076   .     S
O63    C64     1.430   .     S
C64    H65     1.110   .     S
C64    H66     1.109   .     S
C64    H67     1.109   .     S
C68    C69     1.411   .     A
C68    O284    1.413   .     S
C69    C70     1.402   .     A
C69    H290    1.080   .     S
C70    C71     1.485   .     S
C71    N72     1.299   .     D
C71    H86     1.082   .     S
N72    C73     1.436   .     S
C73    C74     1.405   .     A
C73    C78     1.396   .     A
C74    C75     1.399   .     A
C74    H81     1.081   .     S
C75    C76     1.413   .     A
C75    H82     1.080   .     S
C76    C77     1.412   .     A
C76    C79     1.503   .     S
C77    C78     1.396   .     A
C77    H83     1.080   .     S
C78    H84     1.083   .     S
C79    C80     1.409   .     A
C79    C99     1.409   .     A
C80    C122    1.407   .     A
C80    H85     1.077   .     S
C87    C88     1.414   1_565 A
C87    O100    1.413   .     S
C88    C87     1.414   1_545 A
C88    C89     1.402   .     A
C88    H291    1.080   .     S
C89    C90     1.476   .     S
C90    N91     1.300   .     D
C90    H106    1.082   .     S
N91    C92     1.436   .     S
C92    C93     1.405   .     A
C92    C97     1.397   .     A
C93    C94     1.397   .     A
C93    H101    1.081   .     S
C94    C95     1.411   .     A
C94    H102    1.081   .     S
C95    C96     1.410   .     A
C95    C98     1.499   .     S
C96    C97     1.397   .     A
C96    H103    1.081   .     S
C97    H104    1.083   .     S
C98    C99     1.406   .     A
C98    C123    1.406   .     A
C99    H105    1.076   .     S
O100   C107    1.426   .     S
C107   H108    1.110   .     S
C107   H109    1.110   .     S
C107   H110    1.109   .     S
C111   C112    1.399   1_455 A
C111   H292    1.083   .     S
C112   C111    1.399   1_655 A
C112   C113    1.415   .     A
C112   O130    1.406   .     S
C113   C114    1.478   .     S
C114   N115    1.300   .     D
C114   H129    1.077   .     S
N115   C116    1.439   .     S
C116   C117    1.408   .     A
C116   C121    1.398   .     A
C117   C118    1.397   .     A
C117   H124    1.079   .     S
C118   C119    1.409   .     A
C118   H125    1.081   .     S
C119   C120    1.410   .     A
C119   C122    1.498   .     S
C120   C121    1.398   .     A
C120   H126    1.081   .     S
C121   H127    1.083   .     S
C122   C123    1.406   .     A
C123   H128    1.079   .     S
O130   C131    1.430   .     S
C131   H132    1.109   .     S
C131   H133    1.109   .     S
C131   H134    1.109   .     S
C135   C136    1.398   .     A
C135   C214    1.405   .     A
C135   H293    1.083   .     S
C136   C137    1.415   .     A
C136   O154    1.405   .     S
C137   C212    1.406   .     A
C137   C138    1.479   .     S
C138   N139    1.300   .     D
C138   H153    1.077   .     S
N139   C140    1.439   .     S
C140   C141    1.408   .     A
C140   C145    1.399   .     A
C141   C142    1.396   .     A
C141   H148    1.079   .     S
C142   C143    1.409   .     A
C142   H149    1.081   .     S
C143   C144    1.409   .     A
C143   C146    1.497   .     S
C144   C145    1.398   .     A
C144   H150    1.081   .     S
C145   H151    1.083   .     S
C146   C147    1.405   .     A
C146   C171    1.405   .     A
C147   C199    1.407   .     A
C147   H152    1.077   .     S
O154   C155    1.430   .     S
C155   H156    1.109   .     S
C155   H157    1.109   .     S
C155   H158    1.109   .     S
C159   C160    1.408   1_545 A
C159   C238    1.415   .     A
C159   O172    1.402   .     S
C160   C159    1.408   1_565 A
C160   C161    1.412   .     A
C160   O183    1.404   .     S
C161   C236    1.403   .     A
C161   C162    1.481   .     S
C162   N163    1.299   .     D
C162   H178    1.079   .     S
N163   C164    1.437   .     S
C164   C165    1.405   .     A
C164   C169    1.397   .     A
C165   C166    1.396   .     A
C165   H173    1.082   .     S
C166   C167    1.411   .     A
C166   H174    1.081   .     S
C167   C168    1.412   .     A
C167   C170    1.501   .     S
C168   C169    1.398   .     A
C168   H175    1.081   .     S
C169   H176    1.083   .     S
C170   C171    1.408   .     A
C170   C200    1.409   .     A
C171   H177    1.078   .     S
O172   C179    1.429   .     S
C179   H180    1.109   .     S
C179   H181    1.113   .     S
C179   H182    1.109   .     S
O183   C184    1.431   .     S
C184   H185    1.109   .     S
C184   H186    1.112   .     S
C184   H187    1.109   .     S
C188   C189    1.411   1_655 A
C188   C262    1.412   .     A
C188   O201    1.413   .     S
C189   C188    1.411   1_455 A
C189   C190    1.403   .     A
C189   H294    1.080   .     S
C190   C260    1.414   .     A
C190   C191    1.485   .     S
C191   N192    1.298   .     D
C191   H207    1.082   .     S
N192   C193    1.435   .     S
C193   C194    1.405   .     A
C193   C198    1.395   .     A
C194   C195    1.399   .     A
C194   H202    1.081   .     S
C195   C196    1.412   .     A
C195   H203    1.080   .     S
C196   C197    1.411   .     A
C196   C199    1.501   .     S
C197   C198    1.395   .     A
C197   H204    1.080   .     S
C198   H205    1.083   .     S
C199   C200    1.408   .     A
C200   H206    1.077   .     S
O201   C208    1.426   .     S
C208   H209    1.111   .     S
C208   H210    1.110   .     S
C208   H211    1.109   .     S
C212   C213    1.399   .     A
C212   H295    1.083   .     S
C213   C214    1.415   .     A
C213   O231    1.406   .     S
C214   C215    1.478   .     S
C215   N216    1.300   .     D
C215   H230    1.077   .     S
N216   C217    1.439   .     S
C217   C218    1.407   .     A
C217   C222    1.397   .     A
C218   C219    1.397   .     A
C218   H225    1.079   .     S
C219   C220    1.411   .     A
C219   H226    1.080   .     S
C220   C221    1.412   .     A
C220   C223    1.503   .     S
C221   C222    1.398   .     A
C221   H227    1.080   .     S
C222   H228    1.083   .     S
C223   C224    1.409   .     A
C223   C248    1.409   .     A
C224   C271    1.406   .     A
C224   H229    1.077   .     S
O231   C232    1.430   .     S
C232   H233    1.109   .     S
C232   H234    1.109   .     S
C232   H235    1.109   .     S
C236   C237    1.401   1_565 A
C236   H296    1.083   .     S
C237   C236    1.401   1_545 A
C237   C238    1.408   .     A
C237   O255    1.401   .     S
C238   C239    1.487   .     S
C239   N240    1.298   .     D
C239   H254    1.080   .     S
N240   C241    1.436   .     S
C241   C242    1.406   .     A
C241   C246    1.397   .     A
C242   C243    1.398   .     A
C242   H249    1.080   .     S
C243   C244    1.410   .     A
C243   H250    1.081   .     S
C244   C245    1.410   .     A
C244   C247    1.497   .     S
C245   C246    1.395   .     A
C245   H251    1.081   .     S
C246   H252    1.083   .     S
C247   C248    1.408   .     A
C247   C272    1.405   .     A
C248   H253    1.077   .     S
O255   C256    1.425   .     S
C256   H257    1.109   .     S
C256   H258    1.110   .     S
C256   H259    1.111   .     S
C260   C261    1.410   1_455 A
C260   O273    1.413   .     S
C261   C260    1.410   1_655 A
C261   C262    1.401   .     A
C261   H297    1.081   .     S
C262   C263    1.483   .     S
C263   N264    1.298   .     D
C263   H279    1.082   .     S
N264   C265    1.435   .     S
C265   C266    1.405   .     A
C265   C270    1.397   .     A
C266   C267    1.397   .     A
C266   H274    1.081   .     S
C267   C268    1.410   .     A
C267   H275    1.081   .     S
C268   C269    1.409   .     A
C268   C271    1.495   .     S
C269   C270    1.396   .     A
C269   H276    1.081   .     S
C270   H277    1.083   .     S
C271   C272    1.404   .     A
C272   H278    1.079   .     S
O273   C280    1.427   .     S
C280   H281    1.109   .     S
C280   H282    1.111   .     S
C280   H283    1.110   .     S
O284   C285    1.427   .     S
C285   H298    1.109   .     S
C285   H299    1.111   .     S
C285   H300    1.109   .     S